**$ENCRYPTED_LIB
**$INTERFACE
*$
* UCC28950
*****************************************************************************
* (C) Copyright 2019 Texas Instruments Incorporated. All rights reserved.                                            
*****************************************************************************
** This model is designed as an aid for customers of Texas Instruments.
** TI and its licensors and suppliers make no warranties, either expressed
** or implied, with respect to this model, including the warranties of 
** merchantability or fitness for a particular purpose.  The model is
** provided solely on an "as is" basis.  The entire risk as to its quality
** and performance is with the customer
*****************************************************************************
*
* This model is subject to change without notice. Texas Instruments
* Incorporated is not responsible for updating this model.
*
*****************************************************************************
*
** Released by: Texas Instruments Inc.
* Part: UCC28950
* Date: 19JUL2019
* Model Type: TRANSIENT 
* Simulator: PSPICE
* Simulator Version: 16.2.0.p001
* EVM Order Number: UCC28950EVM-442
* EVM Users Guide: SLUU421A–May 2010–Revised May 2010
* Datasheet: SLUSA16D –MARCH 2010–REVISED NOVEMBER 2016
* Topologies Supported: Buck
*
* Model Version: Final 1.2
*
*****************************************************************************
*
* Updates:
* 
* Final 1.2
* 
* 1. The following features have been are newly modeled or fixed.
*      a. Hiccup mode (Current Limit functionality).
*      b. Soft Start voltage pull up.
*      c. SYNC Pin fuctionality.
* 
* Final 1.10
* Updated model to fix Burst Mode
*
* Final 1.00
* Release to Web.
*
*****************************************************************************
*
* Model Usage Notes:
* 1. The following features have been modeled
*      a. MIN ON timer.
*      b. Voltge mode and Current mode.
*      c. Master and Slave mode. 
* 2. Temperature effects are not modeled. 
*
*****************************************************************************
.SUBCKT UCC28950_TRANS ADEL ADELEF COMP CS DCM DELAB DELCD DELEF EAM EAP GND OUTA
+  OUTB OUTC OUTD OUTE OUTF RSUM RT SSEN SYNC TMIN VDD VREF  
$CDNENCSTART
eee8c5c7a2bc4b01f045f303678664e7916da0bae22e8cb0bba041dd67c69ce448ea70148a9ac1670c8926c1ac5057c8ccfcd77bf87ca9dc7ac8b310939d13e9
57798f7e0897c21f706b807646b803714b4da8059e6f1b0237f4bc4d2143273dbc3b77551e395bd3ac915fba16124b2eaac210e6e72b18d8db627d136e26b4cf
46f96fb4ca02e932bc27f931268b4061810d88fd570c814d45017ca9ac2adb667cfcea80385656910297aa69512b8cb3d2bbd7e847d638e106ca5c9d845745cf
a5257eba54077ab5021166ac3753b7b8dbada8cfcc20fff2efe80b3bd8e033565bf8c370beded3daa2555d89ec7b3f0c4d4f5b0f4a0653d96bfb5994c8cae2f0
4b6085f2012636675a0aa31c52cddba976617f42cd5d956bbe62ac14578abd258ca8245aa15681bc5456ef7532a133b87fc89e1db5770cfb3b583bc21320cd1e
cdc0b7a309bf56e6706b807646b80371345dba11c4334ba4269197c57dafdb45e28cb4a6212f9bc575a17276940afd2236019e4e51bc3afb359ff5e8a245123f
d64143797459ec52706b807646b803714fbe44908df726ac183051ac7d73ab4dda2b43b289b24f6f644126c9831a96bdbe62ac14578abd25b00c436b607c85a1
46f96fb4ca02e932bf230db17611f82fb5a66f4eb12f11fcb990c88efd50f7b1c9b13447de62cd235be70ca6245ab3e3fb39caa823c4ddd7c27a0fe47ba19b0a
4651b4c215cbe2b1c23cdff2c91ac450d68a03434d1fac45d52b768c52ff6f8caa7e07f37efb765bbe503d279410203576e4408deb60a68f11151e9433ddb8ff
8767f397bff4c3a731bbfa71d5efb6fe102372497787b35c331c9bb50f111b6ca7c1c0ce68f6b0537404819e0d4aa9574daa7ab0b6b3e2fbfa99bd0d0aedee43
4241258d6e74a1fb706b807646b803714fbe44908df726ac5ad6c7b2961f32bc61c482d7ded3673a57e2c5aa80851370cde16f759232c5603fd4cdb9139223da
7f05fef9dccdfcb3706b807646b80371f14b0056f15ada38d7a754ed6791e249a4d51825ac2309aacecf758449ca068b9acb02d5c9deffb19b457f9ea1108b5c
ec651e4c8d61d50c706b807646b80371b5a66f4eb12f11fcfb88293c541b326038214e68553ef937c4eb76424aae4daf83dabd69671d799e7dde5090fa02a412
1ee3b7230ac8571ea4d51825ac2309aacecf758449ca068b9acb02d5c9deffb1c292ae6638bc43282b7ff0fad96e1fdd5710dc12f61fb24ddcf9dd5cf15475ad
46f96fb4ca02e932b585b96681e0ca9bb5a66f4eb12f11fc1797b6348129713c246dead5a202300975c53d2abf1aca75a1bc523107b3d52350794576b4f63d0d
5e907deffd12c5ffdd06c2baef735cae36806a8e381bf9a0be62ac14578abd258ca8245aa15681bc5456ef7532a133b87fc89e1db5770cfb3b583bc21320cd1e
8767f397bff4c3a731bbfa71d5efb6fe102372497787b35c331c9bb50f111b6ca7c1c0ce68f6b0537404819e0d4aa9574daa7ab0b6b3e2fbfa99bd0d0aedee43
1183f13b1d31bb8d706b807646b80371f19f0da3779abb55356dc7bfec89c530c690db5ad7866132ac915fba16124b2eaac210e6e72b18d8db627d136e26b4cf
ee55dbf0cde39f1d706b807646b80371f445621a324df421bcb74df431d8d5c6f7dad5fc9d54bcf8d68a03434d1fac45d52b768c52ff6f8cf753c2a237e35772
46f96fb4ca02e932f6a2b547dc976ba0345dba11c4334ba46124b51f25b9135ada7376e9a21ff6ce726d9a7f6b37359c8318958aa75d4556dd0a70f33e2447ea
4e2689494256295447158635b18b6659d68a03434d1fac45d52b768c52ff6f8caa7e07f37efb765bbe503d279410203576e4408deb60a68f11151e9433ddb8ff
4b6085f2012636675a0aa31c52cddba976617f42cd5d956bbe62ac14578abd258ca8245aa15681bc5456ef7532a133b87fc89e1db5770cfb3b583bc21320cd1e
1a722950346b759d706b807646b80371ff7a73cef96a8142533aedc3cc44ea09903b3d1f4ecd669814b82ce48bf94af6ac915fba16124b2eb9f0b78276c0da6e
480bd606aeb5352a706b807646b80371ab8d5da2010652a1ff7a73cef96a8142a5b68e03792de442835f511623b3eec20a8c2f8fad3dc4c174f801b02f32f1e7
46f96fb4ca02e932c12e63f53fc8b6c7e420ee51087287733f7bef6525144b98c37e01fe4a18d34e75963efd3ee34e16b032015482838020199902ef25e0ffab
d24b51ea77d68888a4d51825ac2309aacecf758449ca068b9acb02d5c9deffb1c292ae6638bc43282b7ff0fad96e1fdd5710dc12f61fb24ddcf9dd5cf15475ad
4b6085f2012636675a0aa31c52cddba976617f42cd5d956bbe62ac14578abd258ca8245aa15681bc5456ef7532a133b87fc89e1db5770cfb3b583bc21320cd1e
a3b7f2e876209432706b807646b8037176a37ab023061ad020b95c60680938167dff61f2bb49d57935e966cbaae2f139ac915fba16124b2eb9f0b78276c0da6e
0fb501a9bec8f8d3706b807646b80371ebbcd882735e82bc9ea586492b1cf7fe336170d6caac4b3a5aaeb6ac2ce8b16f6864049776ae7c520aa3977a46637c05
2130099189abd5f1706b807646b80371d60804f64d9735e2fca7a93eebb4a0efe2ef47c11f7c0d27a4d51825ac2309aacecf758449ca068b52506ec1a8ab3a61
48f3f97bbe41eb32cd9f9b0fe66d8ad1f98b8cd5b9dac1ed1a9c8351bc539c939f7df7e1d85371372d1031b92ee3cc7424d62347a831d79f0aa3977a46637c05
ebd1ce04e485435d349dd8ac0af37b17a61afc820c3ff01dfd64f594fc59b74840c3589a1438b4d9dbada8cfcc20fff2efe80b3bd8e033568cf7a2d9e6f6a88b
48f3f97bbe41eb32239bdbe658d21d00c044bca1937fd4c4139e167f83b67b384c49b18e65b20125a4d51825ac2309aacecf758449ca068b52506ec1a8ab3a61
f145e3f018f1595a36f8c33b09548661cfa7ee62cda3cf6e7eeed1d98236b36c38447e4dd01e8b18f4bec3a910122270e5e501d320cba7f93b300708695416e3
9adfbcd9fdc243dbcd9f9b0fe66d8ad1ec53672159493e10779400fac93b948dfa460eccc75cda6d88b96b7c831faa4a4f52237e05fcdaf425ed85a6c6b0785e
157dcbb6421b12560a8c2f8fad3dc4c130c5734aaa59c6da74bb4cfb3ffd8792ea89703da3a71ae124942f187a45141d321c197e3e86f059a698542a2ecc18ea
4b6085f2012636675a0aa31c52cddba976617f42cd5d956bbe62ac14578abd258ca8245aa15681bc5456ef7532a133b87fc89e1db5770cfb3b583bc21320cd1e
aa9eeb5d9a0521fa913ee4035980701f179672a1bab10554ff7a73cef96a8142f4b4c15749f7825c1ae249e155f0cf58d6a4bb468090f5e293a099abeeafb888
46f96fb4ca02e932eb87848776396383345dba11c4334ba45ad6c7b2961f32bca829fbc9a810958885ce2a10416cfe3c9b56e9186016819dd2c0ea702584563a
e776e9b255bda08cbfd81d659a09e4b3dbada8cfcc20fff2efe80b3bd8e033565bf8c370beded3daa2555d89ec7b3f0c4d4f5b0f4a0653d96bfb5994c8cae2f0
8767f397bff4c3a731bbfa71d5efb6fe825b843a3aa9ddcdd68a03434d1fac45d52b768c52ff6f8caa7e07f37efb765bbe503d279410203508afcb244b3a63c9
9adfbcd9fdc243dba665d0fac02ce03eb5a66f4eb12f11fc1797b6348129713cda7376e9a21ff6ce83a00705967a2e41f853e1fe64771e4fe4e72beed32b1f99
5911b2e9db27761795d7fcca0b5012ccd68a03434d1fac45d52b768c52ff6f8caa7e07f37efb765bbe503d279410203576e4408deb60a68f11151e9433ddb8ff
bbf0a766f49a242c2637e9cac2aa5ceafd49a287c76beca9cf3db11be0503885ac915fba16124b2eaac210e6e72b18d843fff9d143019f0fdc86cd847447021c
9778f4781c2e06c3706b807646b8037184018070015001127b6549efe79ee6f1dcf64f8c5181141de0bdb544322f441bf068053cacca09b69d6bedf9d0034ac8
baedf4255dd030ad706b807646b803713c83ea6912ef4b517c751475171248b6903b3d1f4ecd669814b82ce48bf94af6ac915fba16124b2eb9f0b78276c0da6e
f511146704dee424706b807646b80371d60804f64d9735e2bd94fdeca1da6e8d99e32f65caaa278c35e966cbaae2f139ac915fba16124b2eb9f0b78276c0da6e
48f3f97bbe41eb32cc0121b5e20e2076505a5bdb22643a8a749d13634498f34b2941ab730d478efea3f8fe6abe61bd412d1031b92ee3cc7424d62347a831d79f
f71e6bdd91a05d2eff42716faa082e496a087bbd030c8ba52d1031b92ee3cc74a78a7e1a2533f3e5fa822b9cb951dcca303d7240d8c3139d7ac8b310939d13e9
46f96fb4ca02e932cc0121b5e20e2076df8b20a3a6d26bd385ce2a10416cfe3c495c4f8d93d53e96524ed2862335948d5314e44f8dbca9aa7846daed4c599468
4f52237e05fcdaf4b31205aa407e75cde847dda77d5f9443be62ac14578abd258ca8245aa15681bc5456ef7532a133b87fc89e1db5770cfb3b583bc21320cd1e
4b6085f2012636675a0aa31c52cddba976617f42cd5d956bbe62ac14578abd258ca8245aa15681bc5456ef7532a133b87fc89e1db5770cfb3b583bc21320cd1e
e700554794821cb5706b807646b80371d0e5b4432ff38c722e0b7a8ef21b412d378c8764f60e1554e1b3b0ee951419e6a4d51825ac2309aa78af7c1fb365e284
48f3f97bbe41eb32eb878487763963832d4b0aa9ba70899f1a9c8351bc539c934ad1a2c3a7436770b965e6c5f4bc2ee949e734cc08759c934fcf946ddf07be09
adf1fbc4118dd24483cf150c1ded4acfdbada8cfcc20fff2efe80b3bd8e033565bf8c370beded3daa2555d89ec7b3f0c4d4f5b0f4a0653d96bfb5994c8cae2f0
3e2f6d3b6fa1f79ed68a03434d1fac45d52b768c52ff6f8caa7e07f37efb765bbe503d279410203576e4408deb60a68f597c1b1d973b9740ca6768cdd96edc9d
acf62dc7fde5a459706b807646b803714fbe44908df726ac621f47bc5b03d770153c574e143cf81c710f626c2faf14a6cde16f759232c5603fd4cdb9139223da
0c2bc5374d06da6c706b807646b80371bcb9518b4b98ddd9a349ee598643eb12a94a7321c1fe1e6a331c9bb50f111b6ca7c1c0ce68f6b05352925dec7dd6b0fe
2ecf2fd1eb3623f9706b807646b80371ba0135d0a0d4f356fa460eccc75cda6d88b96b7c831faa4a4f52237e05fcdaf4b31205aa407e75cd07a26869a6405e98
77f09873ee0e9194be4b8e5d291eed26cde16f759232c56055826ab1b08c2ede2c8628e48117f4d7e9acee51ea250cd179c27519fa21a2ea56ec5b72df7753d7
b8110199622d8d9c706b807646b80371d909d844fa9d4ce469238c9ed3f1a8109c43c24eda4802f788b96b7c831faa4a4f52237e05fcdaf425ed85a6c6b0785e
157dcbb6421b12560a8c2f8fad3dc4c130c5734aaa59c6da74bb4cfb3ffd8792ea89703da3a71ae124942f187a45141d321c197e3e86f059a698542a2ecc18ea
4b6085f2012636675a0aa31c52cddba976617f42cd5d956bbe62ac14578abd258ca8245aa15681bc5456ef7532a133b87fc89e1db5770cfb3b583bc21320cd1e
7358ebf99d435bd7706b807646b80371bcb9518b4b98ddd91a3433fbb8d4f0d26e1128b5606ea979643740ed78f6eb5a0a8c2f8fad3dc4c174f801b02f32f1e7
c34d470d17d9cabc706b807646b80371d909d844fa9d4ce43bd2ca44b31e940e3c9edec8676287b675963efd3ee34e16b032015482838020199902ef25e0ffab
d24b51ea77d68888a4d51825ac2309aacecf758449ca068b9acb02d5c9deffb1c292ae6638bc43282b7ff0fad96e1fdd5710dc12f61fb24ddcf9dd5cf15475ad
4b6085f2012636675a0aa31c52cddba976617f42cd5d956bbe62ac14578abd258ca8245aa15681bc5456ef7532a133b87fc89e1db5770cfb3b583bc21320cd1e
2482df303d4d0d8a706b807646b80371e39381b59bfa845236eee1a5e9f36c1060a188d940e604c11933952b4dcad44ca68ba69006c80e09d9eda28d3f69b96f
0736b9aea252cd5465bd351ff9bed562d68a03434d1fac45d52b768c52ff6f8caa7e07f37efb765bbe503d279410203576e4408deb60a68f11151e9433ddb8ff
fadd7b936ebe08f3706b807646b80371e7c11588d106ca995c65f414a49185658fb00b2b313f8dee8dcea2cdd2d3d5cc9783ae8e4821c68fb9549840541e7e65
2b1410deca799d73331c9bb50f111b6ca7c1c0ce68f6b0537404819e0d4aa9574daa7ab0b6b3e2fb28f234970b30bbdf03cda52cb12082623164c5dfc3fe1959
4b6085f2012636675a0aa31c52cddba976617f42cd5d956bbe62ac14578abd258ca8245aa15681bc5456ef7532a133b87fc89e1db5770cfb3b583bc21320cd1e
0c9063cd0bae6a32706b807646b803717a9a90ed49947aea580b1ea40ba74ac289f3af819ef829090a8c2f8fad3dc4c130c5734aaa59c6da722c27f6f9816fa9
36522e5f9489fe0e706b807646b8037131be6bcece2ca0a4ffbc1ccd39691bf760a188d940e604c11933952b4dcad44ca68ba69006c80e09d9eda28d3f69b96f
0736b9aea252cd5465bd351ff9bed562d68a03434d1fac45d52b768c52ff6f8caa7e07f37efb765bbe503d279410203576e4408deb60a68f11151e9433ddb8ff
26e2ab3f575f3c9e706b807646b803712e1f0fb11dfa05efe5a719211658de9e2f9519232482602a4f30dd34830086e0d727c3e63c979062dda255220ecc6dbc
d2bbd7e847d638e1f9160e96a49a6a05cde16f759232c56055826ab1b08c2ede2c8628e48117f4d7e9acee51ea250cd179c27519fa21a2ea56ec5b72df7753d7
cdaa385411811e27bfd81d659a09e4b32637e9cac2aa5ceafd49a287c76beca9cf3db11be0503885ac915fba16124b2eaac210e6e72b18d8db627d136e26b4cf
cfb935a8bfa83665706b807646b80371dc367e95abb9919e490c1b7c95bbf9ecc58f303f7234a5890a8c2f8fad3dc4c130c5734aaa59c6da722c27f6f9816fa9
3e761c6835cdd8d5706b807646b80371a84dc3517877edbb43e19f4fc96e228559fec27774679eb4cde16f759232c56055826ab1b08c2ede9f5f03068e6d3c35
210070d4e6f1a6ce706b807646b80371ed730bb21cfbabd558f0e63204f207ce7b75cfa415c092e7726d9a7f6b37359c8318958aa75d4556dd0a70f33e2447ea
4e2689494256295447158635b18b6659d68a03434d1fac45d52b768c52ff6f8caa7e07f37efb765bbe503d279410203576e4408deb60a68f11151e9433ddb8ff
4b6085f2012636675a0aa31c52cddba976617f42cd5d956bbe62ac14578abd258ca8245aa15681bc5456ef7532a133b87fc89e1db5770cfb3b583bc21320cd1e
8b9f9105a5ef4b11706b807646b803716fa0b5ba592cd60edb795e083704f2d4b069a5efc36f94a45b5303898325fa4e08eb135e841efad8450139be464a895d
b032015482838020d2208d979160a902a4d51825ac2309aacecf758449ca068b9acb02d5c9deffb1c292ae6638bc43282b7ff0fad96e1fddb9ab157594a8727a
8767f397bff4c3a731bbfa71d5efb6fe3ab97347ad0a000b8ba7571b80bec139ac915fba16124b2eaac210e6e72b18d843fff9d143019f0fdc86cd847447021c
c88b31d8a9ffb366706b807646b80371ed730bb21cfbabd590478dd71471abc316e968fabc1c88871aac83711fd1a41775963efd3ee34e160ff63032dc4e41c4
bfd81d659a09e4b3d24b51ea77d68888a4d51825ac2309aacecf758449ca068b9acb02d5c9deffb1c292ae6638bc43282b7ff0fad96e1fddb9ab157594a8727a
4b6085f2012636675a0aa31c52cddba976617f42cd5d956bbe62ac14578abd258ca8245aa15681bc5456ef7532a133b87fc89e1db5770cfb3b583bc21320cd1e
3f91e150445ea1e1f4e7eb34c1b631931e651a9c13087a922c0adb522befd5f7e08e28b9936265f39745643e21d2e120dbada8cfcc20fff2e714815016f80039
885098d27e2749ac706b807646b80371a399ffbcbcfe0c105d948091e265b7be0bfb13fb24705958b91bbaac956bec5e763e757b7dd0deeea9dc3c75f3a35971
fb39caa823c4ddd7502f880bef78c105d68a03434d1fac45d52b768c52ff6f8caa7e07f37efb765bbe503d279410203576e4408deb60a68f11151e9433ddb8ff
cdaa385411811e27bfd81d659a09e4b32637e9cac2aa5ceafd49a287c76beca9cf3db11be0503885ac915fba16124b2eaac210e6e72b18d8db627d136e26b4cf
92571f87ca1c3f46706b807646b803711491e067a213632d8a793c7b5c5d112f825339c5a6033b9ea4d51825ac2309aacecf758449ca068b52506ec1a8ab3a61
ff9b7c892d33d671706b807646b8037182dcb3953eab55389f3b87c3643d45314a43651c71ddb4910a8c2f8fad3dc4c130c5734aaa59c6da722c27f6f9816fa9
6711d366fa22b5e4706b807646b803719719c1f8ee185c4f8b54529be27adf019d3a92c76febe6af9e825188c910932f1933952b4dcad44cbce232abd70ba3a6
9eaf82adc2a1140dcd9f9b0fe66d8ad1e3b798de2a9b9eec6f5e8f344f2d4568ce5ec34e6f8ad1ca387e82ba91c98af4b77e44b7c87425551e053d93706767db
82b96d0b5ade7e97af399d32d282acb6ac915fba16124b2eaac210e6e72b18d843fff9d143019f0fdc9fe011ac212177046fb98192b27c37d9907eb520d6a9f7
9eaf82adc2a1140de0f494962bc21b5f9c4005bcd9ca79e6b8f475b6ba420d9d8492e52ca990713774bd84a1f90ee88c1cffaec27a59b102e66f5511628af5a5
6d2aa86b77a26c95b5f1c17ee7956303cde16f759232c56055826ab1b08c2ede2c8628e48117f4d7e9acee51ea250cd179c27519fa21a2ea56ec5b72df7753d7
a4438eed8390a64b706b807646b803716fa0b5ba592cd60e0c1b2a43bed5bdedb1a9cec6103bf61120ff3262826742f675963efd3ee34e160ff63032dc4e41c4
bfd81d659a09e4b3d24b51ea77d68888a4d51825ac2309aacecf758449ca068b9acb02d5c9deffb1c292ae6638bc43282b7ff0fad96e1fddb9ab157594a8727a
4b6085f2012636675a0aa31c52cddba976617f42cd5d956bbe62ac14578abd258ca8245aa15681bc5456ef7532a133b87fc89e1db5770cfb3b583bc21320cd1e
a2b8aca897d1fca4706b807646b80371a7d7da843cb37ba08ae19d39dae3dbcdb93e4128e7f85b71a7d7da843cb37ba04433317783326b55d81168f118dbd0a1
8318958aa75d4556dad4b7980b83d60ca4d51825ac2309aacecf758449ca068b9acb02d5c9deffb1c292ae6638bc43282b7ff0fad96e1fddb9ab157594a8727a
bbf0a766f49a242c2637e9cac2aa5ceafd49a287c76beca9cf3db11be0503885ac915fba16124b2eaac210e6e72b18d843fff9d143019f0fdc86cd847447021c
dee6a0d9e6f8e763706b807646b80371a7d7da843cb37ba0b65f16f662c7a82f09135974649477c2ede4a0d7e997dfe3e6df46143db0dff4ef28fb8bbc6af5c1
65a839987ec71809a4d51825ac2309aacecf758449ca068b9acb02d5c9deffb1c292ae6638bc43282b7ff0fad96e1fdd5710dc12f61fb24ddcf9dd5cf15475ad
1c7432cde066cf95ba5ee84b4ef1eeaf60a188d940e604c11933952b4dcad44ca68ba69006c80e09f1b6bc29d103b9156d913effe3ea91170aa3977a46637c05
8794c3280b5dfd56706b807646b803716fa0b5ba592cd60eed82c8adc0783e5eb1a9cec6103bf6110c9a091a150994a6ab64a8952b96b246534d925ed4e5dfb3
75963efd3ee34e16b032015482838020dbada8cfcc20fff2efe80b3bd8e033565bf8c370beded3daa2555d89ec7b3f0c4d4f5b0f4a0653d96bfb5994c8cae2f0
bbf0a766f49a242c2637e9cac2aa5ceafd49a287c76beca9cf3db11be0503885ac915fba16124b2eaac210e6e72b18d843fff9d143019f0fdc86cd847447021c
b02a5531c46f3750706b807646b803716fa0b5ba592cd60e960596a5eaa90fd70486899e32d99d212795457029711c1c1c4259b5b4dca47b46593986eefd1057
b294f6a760b5bb2f85ca69fda8cf338aac915fba16124b2eaac210e6e72b18d843fff9d143019f0fdc9fe011ac212177046fb98192b27c37d9907eb520d6a9f7
cdaa385411811e27bfd81d659a09e4b32637e9cac2aa5cea2cecad1ebf804c4bf467148f06ca8e43cde16f759232c56055826ab1b08c2ede9f5f03068e6d3c35
b326ff5a8ef60fd4706b807646b8037125b6413c041a19e44aa22ba7d6b68195c38461e8f803fab9ed730bb21cfbabd504cda066c5a46fcf83a43670874a565a
88b96b7c831faa4a41097083f6b3a209ac915fba16124b2eaac210e6e72b18d843fff9d143019f0fdc9fe011ac212177046fb98192b27c37d9907eb520d6a9f7
bbf0a766f49a242c2637e9cac2aa5ceafd49a287c76beca9cf3db11be0503885ac915fba16124b2eaac210e6e72b18d843fff9d143019f0fdc86cd847447021c
32f945196658a473706b807646b80371f02649bfe4f324d83ee959bcccd54d5186e1ef44b5c8aa91710f626c2faf14a6cde16f759232c5603fd4cdb9139223da
9eaf82adc2a1140dc12e63f53fc8b6c7e3b798de2a9b9eec913a6ba36b56b4fece5ec34e6f8ad1cadbada8cfcc20fff2efe80b3bd8e033568cf7a2d9e6f6a88b
ef87176f2f39236428d67f6831561ba64f14033b7c3c555b9ccd0345f08f08e828d67f6831561ba69ceeccefa3cbe6b67939ecfdfc26e1751a4b3a4aa1a53d39
b5f1c17ee7956303cde16f759232c56055826ab1b08c2ede2c8628e48117f4d7e9acee51ea250cd179c27519fa21a2ea3cf332e7badd5d27fc433f97632258cc
5e1cac19e20cb5978123cbe92de6edc08f9fbd81e4e27498ee3446e8ee548d77e191d9cda7eb84cca3e0076cdfb9c3f7ac915fba16124b2eb9f0b78276c0da6e
dafbea87648b4df3706b807646b80371722ea3a21342a7607be40ace93be9340948b5880daac1e3d5210c6b5f92906fe7fbd39f2ea121af67905858dbcb61960
55628e89495efdab331c9bb50f111b6ca7c1c0ce68f6b0537404819e0d4aa9574daa7ab0b6b3e2fb28f234970b30bbdf03cda52cb12082623164c5dfc3fe1959
9cdbe22be27160358dcea2cdd2d3d5cc9783ae8e4821c68f44286f328a01b5597353264ebf8b05513267e49cc155bb17aad0cae5ebf3019ab2808f105c98bd8b
b050fe78925b59ce706b807646b80371f16316ba868837ea7d28615fcdcdd7b948c1cb172a6279e411903388bd97a8f02493941d36aa0b209171c37edf8cdb46
75963efd3ee34e16b032015482838020dbada8cfcc20fff2efe80b3bd8e033565bf8c370beded3daa2555d89ec7b3f0c4d4f5b0f4a0653d96bfb5994c8cae2f0
bbf0a766f49a242c2637e9cac2aa5cea2cecad1ebf804c4bf467148f06ca8e43cde16f759232c56055826ab1b08c2ede2c8628e48117f4d7ef152682ea72c6c4
2b3f0796f933b05a6f6a8eefefbc8e17a92605260b63082266e7d0e58a85d09762d3715ca093476e7e310a6773d3a5e6981d97fa33a5f58ed38aff4e12555a5d
ea978f9dc54f31d7706b807646b803712cf9f51c826e88984a921a250911b6e7db63c6f9841a458acb43076903417b7660a188d940e604c1ecf22f43cd602b91
44286f328a01b55967d2eff95da56274ac915fba16124b2eaac210e6e72b18d843fff9d143019f0fdc9fe011ac212177046fb98192b27c37d9907eb520d6a9f7
4b6085f2012636675a0aa31c52cddba976617f42cd5d956bbe62ac14578abd258ca8245aa15681bc5456ef7532a133b87fc89e1db5770cfb3b583bc21320cd1e
ba69e808a9d17a39706b807646b803717e8722ff874555b392f8ece37108a750902b86426b18b569d6b3593c88b73838ac915fba16124b2eb9f0b78276c0da6e
f0468ff6b38a511e706b807646b803712e778fc0317eda2d1f7ddcdcb73886e7d65a9039f32bb74ded730bb21cfbabd5f3aaceec3955d3d1d81168f118dbd0a1
8318958aa75d4556dad4b7980b83d60ca4d51825ac2309aacecf758449ca068b9acb02d5c9deffb1c292ae6638bc43282b7ff0fad96e1fddb9ab157594a8727a
bbf0a766f49a242c2637e9cac2aa5ceafd49a287c76beca9cf3db11be0503885ac915fba16124b2eaac210e6e72b18d843fff9d143019f0fdc86cd847447021c
35288121c857b2b4706b807646b80371c2eeb9f5cdb86aa7bf3e61005534b42edaa08b5dd35c06a4ae26d6f29e2bff0484209bfd6549379550794576b4f63d0d
5e907deffd12c5ffdd06c2baef735cae36806a8e381bf9a0be62ac14578abd258ca8245aa15681bc5456ef7532a133b87fc89e1db5770cfb3b583bc21320cd1e
8767f397bff4c3a731bbfa71d5efb6fe102372497787b35c331c9bb50f111b6ca7c1c0ce68f6b0537404819e0d4aa9574daa7ab0b6b3e2fbfa99bd0d0aedee43
9eaf82adc2a1140db585b96681e0ca9b75c461438d2affacd25af8b925d46e31ce5ec34e6f8ad1ca77f071ed4fcc0261faecb2ce4202cd18d51c210232fc9879
8675a01b2db95be7d68a03434d1fac45d52b768c52ff6f8caa7e07f37efb765bbe503d279410203576e4408deb60a68f597c1b1d973b9740ca6768cdd96edc9d
b6b3e004372f13d2706b807646b80371a7d7da843cb37ba0a81cb4ced23161edc7c082d91934c3bcfe7902aa165339e22dd126e16c722ec6892e8bb282280cdd
8318958aa75d4556dad4b7980b83d60ca4d51825ac2309aacecf758449ca068b9acb02d5c9deffb1c292ae6638bc43282b7ff0fad96e1fddb9ab157594a8727a
bbf0a766f49a242c2637e9cac2aa5ceafd49a287c76beca9cf3db11be0503885ac915fba16124b2eaac210e6e72b18d843fff9d143019f0fdc86cd847447021c
5d414f178cc25c37706b807646b803712cf9f51c826e8898b6cea1c69f5a955dd6b593ae5073a4fd1878ac0ad3f06d4d644126c9831a96bdb2808f105c98bd8b
9eaf82adc2a1140dcc0121b5e20e20769719c1f8ee185c4f7eb4444616e29259d71c066f1fe433889e1c401bedfab84d788f4780f1cde469477ce079334233e4
6d35d8485846d699a4d51825ac2309aacecf758449ca068b9acb02d5c9deffb1c292ae6638bc43282b7ff0fad96e1fdd5710dc12f61fb24ddcf9dd5cf15475ad
421fb55cf7d7e200706b807646b803712e778fc0317eda2d65b1183592c98bf5584110d9a1e355ef735800aab47e6a872ab07eeedec4add7e4e72beed32b1f99
5911b2e9db27761795d7fcca0b5012ccd68a03434d1fac45d52b768c52ff6f8caa7e07f37efb765bbe503d279410203576e4408deb60a68f11151e9433ddb8ff
bbf0a766f49a242c2637e9cac2aa5ceafd49a287c76beca9cf3db11be0503885ac915fba16124b2eaac210e6e72b18d843fff9d143019f0fdc86cd847447021c
9ae6e6bd8f5d047f9c4005bcd9ca79e6ccfe3844cad955658b1ea794bedcaf72aa5d93b21b8b761962179558b53e6278891226aafdc7da5ba4eeb34aa15fb86f
be3f8557d5cedd5b706b807646b80371ed730bb21cfbabd5a48a58d68b7b61d419495d54860d0a73ed730bb21cfbabd5638902852d482785d81168f118dbd0a1
8318958aa75d4556dad4b7980b83d60ca4d51825ac2309aacecf758449ca068b9acb02d5c9deffb1c292ae6638bc43282b7ff0fad96e1fddb9ab157594a8727a
bbf0a766f49a242c2637e9cac2aa5ceafd49a287c76beca9cf3db11be0503885ac915fba16124b2eaac210e6e72b18d843fff9d143019f0fdc86cd847447021c
29aaaf7b41c004f7706b807646b80371c2eeb9f5cdb86aa7a1b8b93bb18f946c7b6bb41f670104b9d2bbd7e847d638e1e776e9b255bda08c8cc849879194c8ab
021166ac3753b7b8dbada8cfcc20fff2efe80b3bd8e033565bf8c370beded3daa2555d89ec7b3f0c4d4f5b0f4a0653d959297b37ff6df6383883a6297d728f7a
4b6085f2012636675a0aa31c52cddba976617f42cd5d956bbe62ac14578abd258ca8245aa15681bc5456ef7532a133b87fc89e1db5770cfb3b583bc21320cd1e
728391d0344b367e706b807646b8037167a3ed411c82e85beabf16dc3dabb531442d12d1d2ed0d7cec4a5a6730c79a20a4d51825ac2309aa78af7c1fb365e284
79e61dc345b8550a706b807646b80371f831f838b274252d9e04a3408644bd502c0adb522befd5f71879843c10f8027a126d77d9914e9bfaffb4a0b6b0bffcc1
3de3d0338a1f0fb738380075bb5248d8a4d51825ac2309aacecf758449ca068b9acb02d5c9deffb1c292ae6638bc43282b7ff0fad96e1fddb9ab157594a8727a
cdaa385411811e27bfd81d659a09e4b32637e9cac2aa5cea2cecad1ebf804c4bf467148f06ca8e43cde16f759232c56055826ab1b08c2ede9f5f03068e6d3c35
fe9e6b26c66a2648706b807646b8037110b8f665264bb1813a09bdf10ab6c6479d3bdfd9b46d3940324d855b3ef48cf72e5a3b90a7789276580ac2481b8301f7
90f5765bbf097c96706b807646b803717ea19b30d2486e5cd62b41652ffc5eab022567beb02b44a175963efd3ee34e16b032015482838020199902ef25e0ffab
d24b51ea77d68888a4d51825ac2309aacecf758449ca068b9acb02d5c9deffb1c292ae6638bc43282b7ff0fad96e1fdd5710dc12f61fb24ddcf9dd5cf15475ad
4b6085f2012636675a0aa31c52cddba976617f42cd5d956bbe62ac14578abd258ca8245aa15681bc5456ef7532a133b87fc89e1db5770cfb3b583bc21320cd1e
e80d549b2afdc6c6706b807646b80371054f571981eb22e8a2707a4d9edbc2e369cf428058714859388e465d133622e3adccfcd8daa86462cd1a2330fd09577d
4664b34f60109a45a4d51825ac2309aacecf758449ca068b9acb02d5c9deffb1c292ae6638bc43282b7ff0fad96e1fdd5710dc12f61fb24ddcf9dd5cf15475ad
fab9cf2b7c040381706b807646b803717cffed33c8b6db9f2285cf5d3ee61218331c9bb50f111b6ca7c1c0ce68f6b0537404819e0d4aa9571e5b818ab9ceded2
f0089cd3a85cde83706b807646b80371d9b52bb9bf561abfcd4360c1850adace90a8b9a3c0b7da25c88e7f45eef29b4a331c9bb50f111b6c5363cc7f7c124748
76cb6a9e32bdc89b706b807646b80371ed730bb21cfbabd5aa0d9943fcc5cfe2c46afeed1842b5d88fe77263b133768e07635a23e2c8f57d4860b5858b33fba9
67a57c013d9e4cddcde16f759232c56055826ab1b08c2ede2c8628e48117f4d7e9acee51ea250cd179c27519fa21a2ea3cf332e7badd5d27fc433f97632258cc
1c7432cde066cf95ba5ee84b4ef1eeaf60a188d940e604c11933952b4dcad44ca68ba69006c80e09f1b6bc29d103b9156d913effe3ea91170aa3977a46637c05
c1a8e9d435d11eb0706b807646b80371c7e482dc75e3fe702f389362dc554836b93e4128e7f85b71c7e482dc75e3fe709798758a185c9f4cd81168f118dbd0a1
8318958aa75d4556dad4b7980b83d60ca4d51825ac2309aacecf758449ca068b9acb02d5c9deffb1c292ae6638bc43282b7ff0fad96e1fddb9ab157594a8727a
bbf0a766f49a242c2637e9cac2aa5ceafd49a287c76beca9cf3db11be0503885ac915fba16124b2eaac210e6e72b18d843fff9d143019f0fdc86cd847447021c
54975e5796449579706b807646b80371ed730bb21cfbabd5272afdb3fed47d68b77e44b7c87425557e7dc81fcfee8cc1331c9bb50f111b6c5363cc7f7c124748
fd6c49aee1d655b1706b807646b803712cf9f51c826e88988665ee7a3cfd02c4c04be0ba9d1fa2acc58f303f7234a5890a8c2f8fad3dc4c174f801b02f32f1e7
bdd8d6b45d26c9f3706b807646b80371b8c09ee5735b249be0dca43c69dbb9fcdbada8cfcc20fff2efe80b3bd8e033565bf8c370beded3da16e266693e71189d
a40a28bf2cb54b71706b807646b80371ed730bb21cfbabd57654d6e513e4bfd7fea00351a80f6e6c8a559fea382c8ba075963efd3ee34e160ff63032dc4e41c4
bfd81d659a09e4b3d24b51ea77d68888a4d51825ac2309aacecf758449ca068b9acb02d5c9deffb1c292ae6638bc43282b7ff0fad96e1fddb9ab157594a8727a
4b6085f2012636675a0aa31c52cddba976617f42cd5d956bbe62ac14578abd258ca8245aa15681bc5456ef7532a133b87fc89e1db5770cfb3b583bc21320cd1e
53a1b3ecb87e4b269c4005bcd9ca79e658c505447bad119138d79c2aa2389f97def93a5bf1c5fe60d9e224017f0a881d7c6a05e67fd634eedc966482b965b58b
3435fb94ca5a94e7706b807646b80371722ea3a21342a7607be40ace93be9340a14e6f3b1e89e570b6b7f1c1a4dcf239b31744b99121cd118c283522b6526b2b
1c7432cde066cf95ba5ee84b4ef1eeaf60a188d940e604c11933952b4dcad44ca68ba69006c80e09f1b6bc29d103b9156d913effe3ea91170aa3977a46637c05
bac43611d8150683706b807646b80371f16316ba868837ead76dc78b668ba0648c76668d84c5944c3fb046e8b25ece306c4ce7e1991476d8351b479c47aed9d2
75963efd3ee34e16b032015482838020dbada8cfcc20fff2efe80b3bd8e033565bf8c370beded3daa2555d89ec7b3f0c4d4f5b0f4a0653d96bfb5994c8cae2f0
bbf0a766f49a242c2637e9cac2aa5ceafd49a287c76beca9cf3db11be0503885ac915fba16124b2eaac210e6e72b18d843fff9d143019f0fdc86cd847447021c
bbcccf2e5198fa64706b807646b8037114eb56a8dc82d50c52bb96feba15f0f34501734de41f4ede38214e68553ef937c4eb76424aae4daf611e61f43163e5e6
b4411d3c08d5c1ff054701e880a26d6fa4d51825ac2309aacecf758449ca068b9acb02d5c9deffb1c292ae6638bc43282b7ff0fad96e1fddb9ab157594a8727a
befc80af0cdb221dfbdef233ba46c5095a434e1a637be69c9f9a3009f3214eed603aad4459512637331c9bb50f111b6ca7c1c0ce68f6b05352925dec7dd6b0fe
93377ae87ddcb356706b807646b80371c7e482dc75e3fe7062ae1c7c723f648c4177fb8305f9a5e0b405647fc11e5b9b75963efd3ee34e160ff63032dc4e41c4
bfd81d659a09e4b3d24b51ea77d68888a4d51825ac2309aacecf758449ca068b9acb02d5c9deffb1c292ae6638bc43282b7ff0fad96e1fddb9ab157594a8727a
4b6085f2012636675a0aa31c52cddba976617f42cd5d956bbe62ac14578abd258ca8245aa15681bc5456ef7532a133b87fc89e1db5770cfb3b583bc21320cd1e
537e1edd332e8e02706b807646b80371ab688e3e843024f033c93c6fd5b8dff27b5f84599ddd46a6fa460eccc75cda6d88b96b7c831faa4af2d5e5299905ab7b
a68ba69006c80e09157dcbb6421b12560a8c2f8fad3dc4c130c5734aaa59c6da74bb4cfb3ffd8792ea89703da3a71ae124942f187a45141d8c5b526c63281ca9
4b6085f2012636675a0aa31c52cddba976617f42cd5d956bbe62ac14578abd258ca8245aa15681bc5456ef7532a133b87fc89e1db5770cfb3b583bc21320cd1e
15818b30fb4b69c6706b807646b80371ed730bb21cfbabd5726ed12d643660d2b77e44b7c8742555f48d5d9151189523331c9bb50f111b6c5363cc7f7c124748
5376178064068f1c706b807646b80371ed730bb21cfbabd590478dd71471abc348ac16e233844705b6cdef9a854977fe08eb135e841efad8450139be464a895d
b032015482838020d2208d979160a902a4d51825ac2309aacecf758449ca068b9acb02d5c9deffb1c292ae6638bc43282b7ff0fad96e1fddb9ab157594a8727a
8767f397bff4c3a731bbfa71d5efb6fe3ab97347ad0a000b427d39680a99ecc4ac915fba16124b2eaac210e6e72b18d843fff9d143019f0fdc86cd847447021c
7b55ac0dd8ca03f7706b807646b80371c8158fbcc440083e6c3e3974e37c611293b28fa1e05ef2ac050159a35d03269f493add1c9ab5e2757ec09cef15c57fb0
1933952b4dcad44c74c7e4af17ab9cebac915fba16124b2eaac210e6e72b18d843fff9d143019f0fdc9fe011ac212177046fb98192b27c37d9907eb520d6a9f7
8767f397bff4c3a731bbfa71d5efb6fe825b843a3aa9ddcdd68a03434d1fac45d52b768c52ff6f8caa7e07f37efb765bbe503d279410203508afcb244b3a63c9
c2782c4833b5e3b5706b807646b8037128d67f6831561ba698b3d63dc19b8a4eda91f89291855a7ddbada8cfcc20fff2efe80b3bd8e033568cf7a2d9e6f6a88b
9eaf82adc2a1140d239bdbe658d21d00e3b798de2a9b9eecadf7206387045630ce5ec34e6f8ad1ca387e82ba91c98af4b77e44b7c8742555e0fd133ac74e0785
82b96d0b5ade7e97af399d32d282acb6ac915fba16124b2eaac210e6e72b18d843fff9d143019f0fdc9fe011ac212177046fb98192b27c37d9907eb520d6a9f7
9eaf82adc2a1140deb878487763963834271705266025355ce5ec34e6f8ad1cafeef2fb51e668a6cb0c4531b300b4eaeb5f1c17ee79563037ac8b310939d13e9
14b585fbc61ec550706b807646b80371c7e482dc75e3fe707b6ba2f3a810df3c09135974649477c2ede4a0d7e997dfe3c7c082d91934c3bcfd94089406e2d590
8821ac938eaddcbba4d51825ac2309aacecf758449ca068b9acb02d5c9deffb1c292ae6638bc43282b7ff0fad96e1fdd5710dc12f61fb24ddcf9dd5cf15475ad
1c7432cde066cf95ba5ee84b4ef1eeaf60a188d940e604c11933952b4dcad44ca68ba69006c80e09f1b6bc29d103b9156d913effe3ea91170aa3977a46637c05
666e95f7c9e41bb6706b807646b80371e9ccdd8c101309d8b1948b395e60718fe2ef47c11f7c0d27a4d51825ac2309aacecf758449ca068b52506ec1a8ab3a61
afb57ee19c9d50ea706b807646b80371bf978f52ad2b74d9726d9a7f6b37359c8318958aa75d45564651b4c215cbe2b1f448aa8b445158d32d602cb3c5dbd2bb
ad0b6fb86357180409f392a0688e506c0a8c2f8fad3dc4c130c5734aaa59c6da74bb4cfb3ffd8792ea89703da3a71ae124942f187a45141d8c5b526c63281ca9